[submodule "UEL_helper_Fortran_LS-Dyna"]
	path = UEL_helper_Fortran_LS-Dyna
	url = ../UEL_helper_Fortran_LS-Dyna
