# path to lsdyna executable
path2lsdynaExe=../../ls-dyna_smp_d_R11_1_0_x64_redhat65_ifort160_sse2_UEL
exeName=lsdyna

# Delete old d3* results [https://superuser.com/questions/482435/how-to-remove-all-files-starting-with-a-certain-string-in-linux]
rm -rf d3*

# Copy lsdyna.exe into current directory
rm $exeName
cp -r $path2lsdynaExe/$exeName .

./$exeName i=1_main.k NCPU=7

