$# LS-DYNA Keyword file created by LS-PrePost(R) V4.7.20 -24Aug2020
$# Created on Mar-24-2022 (18:01:29)
*KEYWORD
*TITLE
$#                                                                         title
half ball impact problem
$---+----1----+----2----+----3----+----4----+----5----+----6----+----7----+----8
*BOUNDARY_PRESCRIBED_MOTION_SET
$#    nsid       dof       vad      lcid        sf       vid     death     birth
         1         3         2         1       1.0         01.00000E28       0.0
*BOUNDARY_SPC_SET
$#    nsid       cid      dofx      dofy      dofz     dofrx     dofry     dofrz
         1         0         1         1         0         0         0         0
*SET_NODE_LIST
$#     sid       da1       da2       da3       da4    solver      
         1       0.0       0.0       0.0       0.0MECH
$#    nid1      nid2      nid3      nid4      nid5      nid6      nid7      nid8
         1         2         3         4         5         6         7         8
         9        28        29        30        31        32        33        46
        47        48        49        50        51        64        65        66
        67        84        85        86        87       104       105       106
       107       112       113       114       115       116       117       130
       131       132       133       150       151       152       153       170
       171       172       173       178       179       180       181       186
       187         0         0         0         0         0         0         0
*CONSTRAINED_GLOBAL
$#      tc        rc       dir         x         y         z       tol   
         7         0         1       2.5       0.0       0.0       0.0
         7         0         1      -2.5       0.0       0.0       0.0
         7         0         2       0.0      -2.5       0.0       0.0
         7         0         2       0.0       2.5       0.0       0.0
$
*CONTACT_SURFACE_TO_SURFACE
$#     cid                                                                 title
$#    ssid      msid     sstyp     mstyp    sboxid    mboxid       spr       mpr
         2         1         3         3         0         0         0         0
$#      fs        fd        dc        vc       vdc    penchk        bt        dt
       0.0       0.0       0.0       0.0       0.0         0       0.0       0.0
$#     sfs       sfm       sst       mst      sfst      sfmt       fsf       vsf
       0.0       0.0       0.0       0.0       0.0       0.0       0.0       0.0
$ optional card A
$     soft
$#    soft    sofscl    lcidab    maxpar     sbopt     depth     bsort    frcfrq
         0       0.1         0     1.025       2.0         2         0         1
$ optional card B
$   penmax    thkopt    shlthk     snlog
$#  penmax    thkopt    shlthk     snlog      isym     i2d3d    sldthk    sldstf
       0.0         0         0         0         0         0       0.0       0.0
$
$========1=========2=========3=========4=========5=========6=========7=========8
$
*CONTROL_CONTACT
$   SLSFAC    RWPNAL    ISLCHK    SHLTHK    PENOPT    THKCHG     ORIEN
$#  slsfac    rwpnal    islchk    shlthk    penopt    thkchg     orien    enmass
        10       0.0         0         1         0         0         0         0
$   USRSTR    USRFAC     NSBCS    INTERM    XPENEN
$#  usrstr    usrfrc     nsbcs    interm     xpene     ssthk      ecdt   tiedprj
         0         0         0         0       0.0         0         0         0
$#   sfric     dfric       edc       vfc        th     th_sf    pen_sf      
       0.0       0.0       0.0       0.0       0.0       0.0       0.0
$#  ignore    frceng   skiprwg    outseg   spotstp   spotdel   spothin       
         0         0         0         0         0         0       0.0
$#    isym    nserod    rwgaps    rwgdth     rwksf      icov    swradf    ithoff
         0         0         1       0.0       1.0         0       0.0         0
$#  shledg    pstiff    ithcnt    tdcnof     ftall    unused    shltrw    igactc
         0         0         0         0         0                 0.0         0
*CONTROL_HOURGLASS
$#     ihq        qh  
         5       0.1
$
*DATABASE_SECFORC
$#      dt    binary      lcur     ioopt     
       0.1         3         0         1
*DATABASE_CROSS_SECTION_PLANE_ID
$#    csid                                                                 title
         1                                                                      
$#    psid       xct       yct       zct       xch       ych       zch    radius
         0       0.0       0.0       0.6       0.0       0.0       1.0       2.0
$#    xhev      yhev      zhev      lenl      lenm        id     itype     
       0.0       0.0       0.0       0.0       0.0         0         0
*CONTROL_IMPLICIT_AUTO
$#   iauto    iteopt    itewin     dtmin     dtmax     dtexp     kfail    kcycle
         1        30         0       0.0      0.03       0.0         0         0
$
$========1=========2=========3=========4=========5=========6=========7=========8
$
*CONTROL_IMPLICIT_GENERAL
$#  imflag       dt0    imform      nsbs       igs     cnstn      form    zero_v
         1      0.01         2         0         2         0         0         0
$
*CONTROL_IMPLICIT_SOLUTION
$#  nsolvr    ilimit    maxref     dctol     ectol     rctol     lstol    abstol
        12         0         0       0.0       0.0       0.0       0.01.0000E-10
$#   dnorm    diverg     istif   nlprint    nlnorm   d3itctl     cpchk     
         2         1         0         0         2         0         0
$#  arcctl    arcdir    arclen    arcmth    arcdmp    arcpsi    arcalf    arctim
         0         0       0.0         1         2         0         0         0
$#   lsmtd     lsdir      irad      srad      awgt      sred    
         4         2       0.0       0.0       0.0       0.0
$
*CONTROL_IMPLICIT_SOLVER
$#  lsolvr    lprint     negev     order      drcm    drcprm   autospc   autotol
         2         0         2         0         4       0.0         1       0.0
$#  lcpack    mtxdmp    iparm1    rparm1    rparm2      
         2         0       5001.00000E-9     0.001
$#  emxdmp    rdcmem      
         0      0.85
$
*CONTROL_TERMINATION
$#  endtim    endcyc     dtmin    endeng    endmas     nosol     
       3.0         0       0.0       0.01.000000E8         0
$
*DATABASE_GLSTAT
$#      dt    binary      lcur     ioopt     
       0.1         0         0         1
$
*DATABASE_RCFORC
$#      dt    binary      lcur     ioopt     
      0.01         0         0         1
$
$---+----1----+----2----+----3----+----4----+----5----+----6----+----7----+----8
$
*DATABASE_BINARY_D3PLOT
$#      dt      lcdt      beam     npltc    psetid      
      0.01         0         0         0         0
*DEFINE_CURVE
$#    lcid      sidr       sfa       sfo      offa      offo    dattyp     lcint
         1         0       1.0       1.0       0.0       0.0         0         0
$#                a1                  o1  
                 0.0                 0.0
                 1.0                 0.5
                 2.0                 0.5
                 3.0                 0.0
$---+----1----+----2----+----3----+----4----+----5----+----6----+----7----+----8
*ELEMENT_SOLID
$#   eid     pid      n1      n2      n3      n4      n5      n6      n7      n8
       1       1       1       4       5       2      10      16      18      12
       2       1       4       7       8       5      16      22      24      18
       3       1       2       5       6       3      12      18      20      14
       4       1       5       8       9       6      18      24      26      20
       5       1      10      16      18      12      11      17      19      13
       6       1      16      22      24      18      17      23      25      19
       7       1      12      18      20      14      13      19      21      15
       8       1      18      24      26      20      19      25      27      21
       9       1       3       6      30      28      14      20      38      34
      10       1       6       9      32      30      20      26      42      38
      11       1      28      30      31      29      34      38      40      36
      12       1      30      32      33      31      38      42      44      40
      13       1      14      20      38      34      15      21      39      35
      14       1      20      26      42      38      21      27      43      39
      15       1      34      38      40      36      35      39      41      37
      16       1      38      42      44      40      39      43      45      41
      17       1       1      46      47       4      10      52      54      16
      18       1      46      49      50      47      52      58      60      54
      19       1       4      47      48       7      16      54      56      22
      20       1      47      50      51      48      54      60      62      56
      21       1      10      52      54      16      11      53      55      17
      22       1      52      58      60      54      53      59      61      55
      23       1      16      54      56      22      17      55      57      23
      24       1      54      60      62      56      55      61      63      57
      25       1       7      48      64       8      22      56      68      24
      26       1      48      51      66      64      56      62      72      68
      27       1       8      64      65       9      24      68      70      26
      28       1      64      66      67      65      68      72      74      70
      29       1      22      56      68      24      23      57      69      25
      30       1      56      62      72      68      57      63      73      69
      31       1      24      68      70      26      25      69      71      27
      32       1      68      72      74      70      69      73      75      71
      33       1      23      57      69      25      17      55      76      19
      34       1      57      63      73      69      55      61      80      76
      35       1      25      69      71      27      19      76      78      21
      36       1      69      73      75      71      76      80      82      78
      37       1      17      55      76      19      11      53      77      13
      38       1      55      61      80      76      53      59      81      77
      39       1      19      76      78      21      13      77      79      15
      40       1      76      80      82      78      77      81      83      79
      41       1       9      65      84      32      26      70      88      42
      42       1      65      67      86      84      70      74      92      88
      43       1      32      84      85      33      42      88      90      44
      44       1      84      86      87      85      88      92      94      90
      45       1      26      70      88      42      27      71      89      43
      46       1      70      74      92      88      71      75      93      89
      47       1      42      88      90      44      43      89      91      45
      48       1      88      92      94      90      89      93      95      91
      49       1      27      71      89      43      21      78      96      39
      50       1      71      75      93      89      78      82     100      96
      51       1      43      89      91      45      39      96      98      41
      52       1      89      93      95      91      96     100     102      98
      53       1      21      78      96      39      15      79      97      35
      54       1      78      82     100      96      79      83     101      97
      55       1      39      96      98      41      35      97      99      37
      56       1      96     100     102      98      97     101     103      99
      57       1      33      85     104      31      44      90     108      40
      58       1      85      87     106     104      90      94     110     108
      59       1      31     104     105      29      40     108     109      36
      60       1     104     106     107     105     108     110     111     109
      61       1      44      90     108      40      45      91      98      41
      62       1      90      94     110     108      91      95     102      98
      63       1      40     108     109      36      41      98      99      37
      64       1     108     110     111     109      98     102     103      99
      65       1      49     112     113      50      58     118     120      60
      66       1     112     115     116     113     118     124     126     120
      67       1      50     113     114      51      60     120     122      62
      68       1     113     116     117     114     120     126     128     122
      69       1      58     118     120      60      59     119     121      61
      70       1     118     124     126     120     119     125     127     121
      71       1      60     120     122      62      61     121     123      63
      72       1     120     126     128     122     121     127     129     123
      73       1      51     114     130      66      62     122     134      72
      74       1     114     117     132     130     122     128     138     134
      75       1      66     130     131      67      72     134     136      74
      76       1     130     132     133     131     134     138     140     136
      77       1      62     122     134      72      63     123     135      73
      78       1     122     128     138     134     123     129     139     135
      79       1      72     134     136      74      73     135     137      75
      80       1     134     138     140     136     135     139     141     137
      81       1      63     123     135      73      61     121     142      80
      82       1     123     129     139     135     121     127     146     142
      83       1      73     135     137      75      80     142     144      82
      84       1     135     139     141     137     142     146     148     144
      85       1      61     121     142      80      59     119     143      81
      86       1     121     127     146     142     119     125     147     143
      87       1      80     142     144      82      81     143     145      83
      88       1     142     146     148     144     143     147     149     145
      89       1      67     131     150      86      74     136     154      92
      90       1     131     133     152     150     136     140     158     154
      91       1      86     150     151      87      92     154     156      94
      92       1     150     152     153     151     154     158     160     156
      93       1      74     136     154      92      75     137     155      93
      94       1     136     140     158     154     137     141     159     155
      95       1      92     154     156      94      93     155     157      95
      96       1     154     158     160     156     155     159     161     157
      97       1      75     137     155      93      82     144     162     100
      98       1     137     141     159     155     144     148     166     162
      99       1      93     155     157      95     100     162     164     102
     100       1     155     159     161     157     162     166     168     164
     101       1      82     144     162     100      83     145     163     101
     102       1     144     148     166     162     145     149     167     163
     103       1     100     162     164     102     101     163     165     103
     104       1     162     166     168     164     163     167     169     165
     105       1      87     151     170     106      94     156     174     110
     106       1     151     153     172     170     156     160     176     174
     107       1     106     170     171     107     110     174     175     111
     108       1     170     172     173     171     174     176     177     175
     109       1      94     156     174     110      95     157     164     102
     110       1     156     160     176     174     157     161     168     164
     111       1     110     174     175     111     102     164     165     103
     112       1     174     176     177     175     164     168     169     165
     113       1     117     116     178     132     128     126     182     138
     114       1     116     115     180     178     126     124     184     182
     115       1     132     178     179     133     138     182     183     140
     116       1     178     180     181     179     182     184     185     183
     117       1     128     126     182     138     129     127     146     139
     118       1     126     124     184     182     127     125     147     146
     119       1     138     182     183     140     139     146     148     141
     120       1     182     184     185     183     146     147     149     148
     121       1     133     179     186     152     140     183     188     158
     122       1     179     181     187     186     183     185     189     188
     123       1     152     186     172     153     158     188     176     160
     124       1     186     187     173     172     188     189     177     176
     125       1     140     183     188     158     141     148     166     159
     126       1     183     185     189     188     148     149     167     166
     127       1     158     188     176     160     159     166     168     161
     128       1     188     189     177     176     166     167     169     168
     129       2     190     191     207     206     446     447     463     462
     130       2     191     192     208     207     447     448     464     463
     131       2     192     193     209     208     448     449     465     464
     132       2     193     194     210     209     449     450     466     465
     133       2     194     195     211     210     450     451     467     466
     134       2     195     196     212     211     451     452     468     467
     135       2     196     197     213     212     452     453     469     468
     136       2     197     198     214     213     453     454     470     469
     137       2     198     199     215     214     454     455     471     470
     138       2     199     200     216     215     455     456     472     471
     139       2     200     201     217     216     456     457     473     472
     140       2     201     202     218     217     457     458     474     473
     141       2     202     203     219     218     458     459     475     474
     142       2     203     204     220     219     459     460     476     475
     143       2     204     205     221     220     460     461     477     476
     144       2     206     207     223     222     462     463     479     478
     145       2     207     208     224     223     463     464     480     479
     146       2     208     209     225     224     464     465     481     480
     147       2     209     210     226     225     465     466     482     481
     148       2     210     211     227     226     466     467     483     482
     149       2     211     212     228     227     467     468     484     483
     150       2     212     213     229     228     468     469     485     484
     151       2     213     214     230     229     469     470     486     485
     152       2     214     215     231     230     470     471     487     486
     153       2     215     216     232     231     471     472     488     487
     154       2     216     217     233     232     472     473     489     488
     155       2     217     218     234     233     473     474     490     489
     156       2     218     219     235     234     474     475     491     490
     157       2     219     220     236     235     475     476     492     491
     158       2     220     221     237     236     476     477     493     492
     159       2     222     223     239     238     478     479     495     494
     160       2     223     224     240     239     479     480     496     495
     161       2     224     225     241     240     480     481     497     496
     162       2     225     226     242     241     481     482     498     497
     163       2     226     227     243     242     482     483     499     498
     164       2     227     228     244     243     483     484     500     499
     165       2     228     229     245     244     484     485     501     500
     166       2     229     230     246     245     485     486     502     501
     167       2     230     231     247     246     486     487     503     502
     168       2     231     232     248     247     487     488     504     503
     169       2     232     233     249     248     488     489     505     504
     170       2     233     234     250     249     489     490     506     505
     171       2     234     235     251     250     490     491     507     506
     172       2     235     236     252     251     491     492     508     507
     173       2     236     237     253     252     492     493     509     508
     174       2     238     239     255     254     494     495     511     510
     175       2     239     240     256     255     495     496     512     511
     176       2     240     241     257     256     496     497     513     512
     177       2     241     242     258     257     497     498     514     513
     178       2     242     243     259     258     498     499     515     514
     179       2     243     244     260     259     499     500     516     515
     180       2     244     245     261     260     500     501     517     516
     181       2     245     246     262     261     501     502     518     517
     182       2     246     247     263     262     502     503     519     518
     183       2     247     248     264     263     503     504     520     519
     184       2     248     249     265     264     504     505     521     520
     185       2     249     250     266     265     505     506     522     521
     186       2     250     251     267     266     506     507     523     522
     187       2     251     252     268     267     507     508     524     523
     188       2     252     253     269     268     508     509     525     524
     189       2     254     255     271     270     510     511     527     526
     190       2     255     256     272     271     511     512     528     527
     191       2     256     257     273     272     512     513     529     528
     192       2     257     258     274     273     513     514     530     529
     193       2     258     259     275     274     514     515     531     530
     194       2     259     260     276     275     515     516     532     531
     195       2     260     261     277     276     516     517     533     532
     196       2     261     262     278     277     517     518     534     533
     197       2     262     263     279     278     518     519     535     534
     198       2     263     264     280     279     519     520     536     535
     199       2     264     265     281     280     520     521     537     536
     200       2     265     266     282     281     521     522     538     537
     201       2     266     267     283     282     522     523     539     538
     202       2     267     268     284     283     523     524     540     539
     203       2     268     269     285     284     524     525     541     540
     204       2     270     271     287     286     526     527     543     542
     205       2     271     272     288     287     527     528     544     543
     206       2     272     273     289     288     528     529     545     544
     207       2     273     274     290     289     529     530     546     545
     208       2     274     275     291     290     530     531     547     546
     209       2     275     276     292     291     531     532     548     547
     210       2     276     277     293     292     532     533     549     548
     211       2     277     278     294     293     533     534     550     549
     212       2     278     279     295     294     534     535     551     550
     213       2     279     280     296     295     535     536     552     551
     214       2     280     281     297     296     536     537     553     552
     215       2     281     282     298     297     537     538     554     553
     216       2     282     283     299     298     538     539     555     554
     217       2     283     284     300     299     539     540     556     555
     218       2     284     285     301     300     540     541     557     556
     219       2     286     287     303     302     542     543     559     558
     220       2     287     288     304     303     543     544     560     559
     221       2     288     289     305     304     544     545     561     560
     222       2     289     290     306     305     545     546     562     561
     223       2     290     291     307     306     546     547     563     562
     224       2     291     292     308     307     547     548     564     563
     225       2     292     293     309     308     548     549     565     564
     226       2     293     294     310     309     549     550     566     565
     227       2     294     295     311     310     550     551     567     566
     228       2     295     296     312     311     551     552     568     567
     229       2     296     297     313     312     552     553     569     568
     230       2     297     298     314     313     553     554     570     569
     231       2     298     299     315     314     554     555     571     570
     232       2     299     300     316     315     555     556     572     571
     233       2     300     301     317     316     556     557     573     572
     234       2     302     303     319     318     558     559     575     574
     235       2     303     304     320     319     559     560     576     575
     236       2     304     305     321     320     560     561     577     576
     237       2     305     306     322     321     561     562     578     577
     238       2     306     307     323     322     562     563     579     578
     239       2     307     308     324     323     563     564     580     579
     240       2     308     309     325     324     564     565     581     580
     241       2     309     310     326     325     565     566     582     581
     242       2     310     311     327     326     566     567     583     582
     243       2     311     312     328     327     567     568     584     583
     244       2     312     313     329     328     568     569     585     584
     245       2     313     314     330     329     569     570     586     585
     246       2     314     315     331     330     570     571     587     586
     247       2     315     316     332     331     571     572     588     587
     248       2     316     317     333     332     572     573     589     588
     249       2     318     319     335     334     574     575     591     590
     250       2     319     320     336     335     575     576     592     591
     251       2     320     321     337     336     576     577     593     592
     252       2     321     322     338     337     577     578     594     593
     253       2     322     323     339     338     578     579     595     594
     254       2     323     324     340     339     579     580     596     595
     255       2     324     325     341     340     580     581     597     596
     256       2     325     326     342     341     581     582     598     597
     257       2     326     327     343     342     582     583     599     598
     258       2     327     328     344     343     583     584     600     599
     259       2     328     329     345     344     584     585     601     600
     260       2     329     330     346     345     585     586     602     601
     261       2     330     331     347     346     586     587     603     602
     262       2     331     332     348     347     587     588     604     603
     263       2     332     333     349     348     588     589     605     604
     264       2     334     335     351     350     590     591     607     606
     265       2     335     336     352     351     591     592     608     607
     266       2     336     337     353     352     592     593     609     608
     267       2     337     338     354     353     593     594     610     609
     268       2     338     339     355     354     594     595     611     610
     269       2     339     340     356     355     595     596     612     611
     270       2     340     341     357     356     596     597     613     612
     271       2     341     342     358     357     597     598     614     613
     272       2     342     343     359     358     598     599     615     614
     273       2     343     344     360     359     599     600     616     615
     274       2     344     345     361     360     600     601     617     616
     275       2     345     346     362     361     601     602     618     617
     276       2     346     347     363     362     602     603     619     618
     277       2     347     348     364     363     603     604     620     619
     278       2     348     349     365     364     604     605     621     620
     279       2     350     351     367     366     606     607     623     622
     280       2     351     352     368     367     607     608     624     623
     281       2     352     353     369     368     608     609     625     624
     282       2     353     354     370     369     609     610     626     625
     283       2     354     355     371     370     610     611     627     626
     284       2     355     356     372     371     611     612     628     627
     285       2     356     357     373     372     612     613     629     628
     286       2     357     358     374     373     613     614     630     629
     287       2     358     359     375     374     614     615     631     630
     288       2     359     360     376     375     615     616     632     631
     289       2     360     361     377     376     616     617     633     632
     290       2     361     362     378     377     617     618     634     633
     291       2     362     363     379     378     618     619     635     634
     292       2     363     364     380     379     619     620     636     635
     293       2     364     365     381     380     620     621     637     636
     294       2     366     367     383     382     622     623     639     638
     295       2     367     368     384     383     623     624     640     639
     296       2     368     369     385     384     624     625     641     640
     297       2     369     370     386     385     625     626     642     641
     298       2     370     371     387     386     626     627     643     642
     299       2     371     372     388     387     627     628     644     643
     300       2     372     373     389     388     628     629     645     644
     301       2     373     374     390     389     629     630     646     645
     302       2     374     375     391     390     630     631     647     646
     303       2     375     376     392     391     631     632     648     647
     304       2     376     377     393     392     632     633     649     648
     305       2     377     378     394     393     633     634     650     649
     306       2     378     379     395     394     634     635     651     650
     307       2     379     380     396     395     635     636     652     651
     308       2     380     381     397     396     636     637     653     652
     309       2     382     383     399     398     638     639     655     654
     310       2     383     384     400     399     639     640     656     655
     311       2     384     385     401     400     640     641     657     656
     312       2     385     386     402     401     641     642     658     657
     313       2     386     387     403     402     642     643     659     658
     314       2     387     388     404     403     643     644     660     659
     315       2     388     389     405     404     644     645     661     660
     316       2     389     390     406     405     645     646     662     661
     317       2     390     391     407     406     646     647     663     662
     318       2     391     392     408     407     647     648     664     663
     319       2     392     393     409     408     648     649     665     664
     320       2     393     394     410     409     649     650     666     665
     321       2     394     395     411     410     650     651     667     666
     322       2     395     396     412     411     651     652     668     667
     323       2     396     397     413     412     652     653     669     668
     324       2     398     399     415     414     654     655     671     670
     325       2     399     400     416     415     655     656     672     671
     326       2     400     401     417     416     656     657     673     672
     327       2     401     402     418     417     657     658     674     673
     328       2     402     403     419     418     658     659     675     674
     329       2     403     404     420     419     659     660     676     675
     330       2     404     405     421     420     660     661     677     676
     331       2     405     406     422     421     661     662     678     677
     332       2     406     407     423     422     662     663     679     678
     333       2     407     408     424     423     663     664     680     679
     334       2     408     409     425     424     664     665     681     680
     335       2     409     410     426     425     665     666     682     681
     336       2     410     411     427     426     666     667     683     682
     337       2     411     412     428     427     667     668     684     683
     338       2     412     413     429     428     668     669     685     684
     339       2     414     415     431     430     670     671     687     686
     340       2     415     416     432     431     671     672     688     687
     341       2     416     417     433     432     672     673     689     688
     342       2     417     418     434     433     673     674     690     689
     343       2     418     419     435     434     674     675     691     690
     344       2     419     420     436     435     675     676     692     691
     345       2     420     421     437     436     676     677     693     692
     346       2     421     422     438     437     677     678     694     693
     347       2     422     423     439     438     678     679     695     694
     348       2     423     424     440     439     679     680     696     695
     349       2     424     425     441     440     680     681     697     696
     350       2     425     426     442     441     681     682     698     697
     351       2     426     427     443     442     682     683     699     698
     352       2     427     428     444     443     683     684     700     699
     353       2     428     429     445     444     684     685     701     700
     354       2     446     447     463     462     702     703     719     718
     355       2     447     448     464     463     703     704     720     719
     356       2     448     449     465     464     704     705     721     720
     357       2     449     450     466     465     705     706     722     721
     358       2     450     451     467     466     706     707     723     722
     359       2     451     452     468     467     707     708     724     723
     360       2     452     453     469     468     708     709     725     724
     361       2     453     454     470     469     709     710     726     725
     362       2     454     455     471     470     710     711     727     726
     363       2     455     456     472     471     711     712     728     727
     364       2     456     457     473     472     712     713     729     728
     365       2     457     458     474     473     713     714     730     729
     366       2     458     459     475     474     714     715     731     730
     367       2     459     460     476     475     715     716     732     731
     368       2     460     461     477     476     716     717     733     732
     369       2     462     463     479     478     718     719     735     734
     370       2     463     464     480     479     719     720     736     735
     371       2     464     465     481     480     720     721     737     736
     372       2     465     466     482     481     721     722     738     737
     373       2     466     467     483     482     722     723     739     738
     374       2     467     468     484     483     723     724     740     739
     375       2     468     469     485     484     724     725     741     740
     376       2     469     470     486     485     725     726     742     741
     377       2     470     471     487     486     726     727     743     742
     378       2     471     472     488     487     727     728     744     743
     379       2     472     473     489     488     728     729     745     744
     380       2     473     474     490     489     729     730     746     745
     381       2     474     475     491     490     730     731     747     746
     382       2     475     476     492     491     731     732     748     747
     383       2     476     477     493     492     732     733     749     748
     384       2     478     479     495     494     734     735     751     750
     385       2     479     480     496     495     735     736     752     751
     386       2     480     481     497     496     736     737     753     752
     387       2     481     482     498     497     737     738     754     753
     388       2     482     483     499     498     738     739     755     754
     389       2     483     484     500     499     739     740     756     755
     390       2     484     485     501     500     740     741     757     756
     391       2     485     486     502     501     741     742     758     757
     392       2     486     487     503     502     742     743     759     758
     393       2     487     488     504     503     743     744     760     759
     394       2     488     489     505     504     744     745     761     760
     395       2     489     490     506     505     745     746     762     761
     396       2     490     491     507     506     746     747     763     762
     397       2     491     492     508     507     747     748     764     763
     398       2     492     493     509     508     748     749     765     764
     399       2     494     495     511     510     750     751     767     766
     400       2     495     496     512     511     751     752     768     767
     401       2     496     497     513     512     752     753     769     768
     402       2     497     498     514     513     753     754     770     769
     403       2     498     499     515     514     754     755     771     770
     404       2     499     500     516     515     755     756     772     771
     405       2     500     501     517     516     756     757     773     772
     406       2     501     502     518     517     757     758     774     773
     407       2     502     503     519     518     758     759     775     774
     408       2     503     504     520     519     759     760     776     775
     409       2     504     505     521     520     760     761     777     776
     410       2     505     506     522     521     761     762     778     777
     411       2     506     507     523     522     762     763     779     778
     412       2     507     508     524     523     763     764     780     779
     413       2     508     509     525     524     764     765     781     780
     414       2     510     511     527     526     766     767     783     782
     415       2     511     512     528     527     767     768     784     783
     416       2     512     513     529     528     768     769     785     784
     417       2     513     514     530     529     769     770     786     785
     418       2     514     515     531     530     770     771     787     786
     419       2     515     516     532     531     771     772     788     787
     420       2     516     517     533     532     772     773     789     788
     421       2     517     518     534     533     773     774     790     789
     422       2     518     519     535     534     774     775     791     790
     423       2     519     520     536     535     775     776     792     791
     424       2     520     521     537     536     776     777     793     792
     425       2     521     522     538     537     777     778     794     793
     426       2     522     523     539     538     778     779     795     794
     427       2     523     524     540     539     779     780     796     795
     428       2     524     525     541     540     780     781     797     796
     429       2     526     527     543     542     782     783     799     798
     430       2     527     528     544     543     783     784     800     799
     431       2     528     529     545     544     784     785     801     800
     432       2     529     530     546     545     785     786     802     801
     433       2     530     531     547     546     786     787     803     802
     434       2     531     532     548     547     787     788     804     803
     435       2     532     533     549     548     788     789     805     804
     436       2     533     534     550     549     789     790     806     805
     437       2     534     535     551     550     790     791     807     806
     438       2     535     536     552     551     791     792     808     807
     439       2     536     537     553     552     792     793     809     808
     440       2     537     538     554     553     793     794     810     809
     441       2     538     539     555     554     794     795     811     810
     442       2     539     540     556     555     795     796     812     811
     443       2     540     541     557     556     796     797     813     812
     444       2     542     543     559     558     798     799     815     814
     445       2     543     544     560     559     799     800     816     815
     446       2     544     545     561     560     800     801     817     816
     447       2     545     546     562     561     801     802     818     817
     448       2     546     547     563     562     802     803     819     818
     449       2     547     548     564     563     803     804     820     819
     450       2     548     549     565     564     804     805     821     820
     451       2     549     550     566     565     805     806     822     821
     452       2     550     551     567     566     806     807     823     822
     453       2     551     552     568     567     807     808     824     823
     454       2     552     553     569     568     808     809     825     824
     455       2     553     554     570     569     809     810     826     825
     456       2     554     555     571     570     810     811     827     826
     457       2     555     556     572     571     811     812     828     827
     458       2     556     557     573     572     812     813     829     828
     459       2     558     559     575     574     814     815     831     830
     460       2     559     560     576     575     815     816     832     831
     461       2     560     561     577     576     816     817     833     832
     462       2     561     562     578     577     817     818     834     833
     463       2     562     563     579     578     818     819     835     834
     464       2     563     564     580     579     819     820     836     835
     465       2     564     565     581     580     820     821     837     836
     466       2     565     566     582     581     821     822     838     837
     467       2     566     567     583     582     822     823     839     838
     468       2     567     568     584     583     823     824     840     839
     469       2     568     569     585     584     824     825     841     840
     470       2     569     570     586     585     825     826     842     841
     471       2     570     571     587     586     826     827     843     842
     472       2     571     572     588     587     827     828     844     843
     473       2     572     573     589     588     828     829     845     844
     474       2     574     575     591     590     830     831     847     846
     475       2     575     576     592     591     831     832     848     847
     476       2     576     577     593     592     832     833     849     848
     477       2     577     578     594     593     833     834     850     849
     478       2     578     579     595     594     834     835     851     850
     479       2     579     580     596     595     835     836     852     851
     480       2     580     581     597     596     836     837     853     852
     481       2     581     582     598     597     837     838     854     853
     482       2     582     583     599     598     838     839     855     854
     483       2     583     584     600     599     839     840     856     855
     484       2     584     585     601     600     840     841     857     856
     485       2     585     586     602     601     841     842     858     857
     486       2     586     587     603     602     842     843     859     858
     487       2     587     588     604     603     843     844     860     859
     488       2     588     589     605     604     844     845     861     860
     489       2     590     591     607     606     846     847     863     862
     490       2     591     592     608     607     847     848     864     863
     491       2     592     593     609     608     848     849     865     864
     492       2     593     594     610     609     849     850     866     865
     493       2     594     595     611     610     850     851     867     866
     494       2     595     596     612     611     851     852     868     867
     495       2     596     597     613     612     852     853     869     868
     496       2     597     598     614     613     853     854     870     869
     497       2     598     599     615     614     854     855     871     870
     498       2     599     600     616     615     855     856     872     871
     499       2     600     601     617     616     856     857     873     872
     500       2     601     602     618     617     857     858     874     873
     501       2     602     603     619     618     858     859     875     874
     502       2     603     604     620     619     859     860     876     875
     503       2     604     605     621     620     860     861     877     876
     504       2     606     607     623     622     862     863     879     878
     505       2     607     608     624     623     863     864     880     879
     506       2     608     609     625     624     864     865     881     880
     507       2     609     610     626     625     865     866     882     881
     508       2     610     611     627     626     866     867     883     882
     509       2     611     612     628     627     867     868     884     883
     510       2     612     613     629     628     868     869     885     884
     511       2     613     614     630     629     869     870     886     885
     512       2     614     615     631     630     870     871     887     886
     513       2     615     616     632     631     871     872     888     887
     514       2     616     617     633     632     872     873     889     888
     515       2     617     618     634     633     873     874     890     889
     516       2     618     619     635     634     874     875     891     890
     517       2     619     620     636     635     875     876     892     891
     518       2     620     621     637     636     876     877     893     892
     519       2     622     623     639     638     878     879     895     894
     520       2     623     624     640     639     879     880     896     895
     521       2     624     625     641     640     880     881     897     896
     522       2     625     626     642     641     881     882     898     897
     523       2     626     627     643     642     882     883     899     898
     524       2     627     628     644     643     883     884     900     899
     525       2     628     629     645     644     884     885     901     900
     526       2     629     630     646     645     885     886     902     901
     527       2     630     631     647     646     886     887     903     902
     528       2     631     632     648     647     887     888     904     903
     529       2     632     633     649     648     888     889     905     904
     530       2     633     634     650     649     889     890     906     905
     531       2     634     635     651     650     890     891     907     906
     532       2     635     636     652     651     891     892     908     907
     533       2     636     637     653     652     892     893     909     908
     534       2     638     639     655     654     894     895     911     910
     535       2     639     640     656     655     895     896     912     911
     536       2     640     641     657     656     896     897     913     912
     537       2     641     642     658     657     897     898     914     913
     538       2     642     643     659     658     898     899     915     914
     539       2     643     644     660     659     899     900     916     915
     540       2     644     645     661     660     900     901     917     916
     541       2     645     646     662     661     901     902     918     917
     542       2     646     647     663     662     902     903     919     918
     543       2     647     648     664     663     903     904     920     919
     544       2     648     649     665     664     904     905     921     920
     545       2     649     650     666     665     905     906     922     921
     546       2     650     651     667     666     906     907     923     922
     547       2     651     652     668     667     907     908     924     923
     548       2     652     653     669     668     908     909     925     924
     549       2     654     655     671     670     910     911     927     926
     550       2     655     656     672     671     911     912     928     927
     551       2     656     657     673     672     912     913     929     928
     552       2     657     658     674     673     913     914     930     929
     553       2     658     659     675     674     914     915     931     930
     554       2     659     660     676     675     915     916     932     931
     555       2     660     661     677     676     916     917     933     932
     556       2     661     662     678     677     917     918     934     933
     557       2     662     663     679     678     918     919     935     934
     558       2     663     664     680     679     919     920     936     935
     559       2     664     665     681     680     920     921     937     936
     560       2     665     666     682     681     921     922     938     937
     561       2     666     667     683     682     922     923     939     938
     562       2     667     668     684     683     923     924     940     939
     563       2     668     669     685     684     924     925     941     940
     564       2     670     671     687     686     926     927     943     942
     565       2     671     672     688     687     927     928     944     943
     566       2     672     673     689     688     928     929     945     944
     567       2     673     674     690     689     929     930     946     945
     568       2     674     675     691     690     930     931     947     946
     569       2     675     676     692     691     931     932     948     947
     570       2     676     677     693     692     932     933     949     948
     571       2     677     678     694     693     933     934     950     949
     572       2     678     679     695     694     934     935     951     950
     573       2     679     680     696     695     935     936     952     951
     574       2     680     681     697     696     936     937     953     952
     575       2     681     682     698     697     937     938     954     953
     576       2     682     683     699     698     938     939     955     954
     577       2     683     684     700     699     939     940     956     955
     578       2     684     685     701     700     940     941     957     956
     579       2     702     703     719     718     958     959     975     974
     580       2     703     704     720     719     959     960     976     975
     581       2     704     705     721     720     960     961     977     976
     582       2     705     706     722     721     961     962     978     977
     583       2     706     707     723     722     962     963     979     978
     584       2     707     708     724     723     963     964     980     979
     585       2     708     709     725     724     964     965     981     980
     586       2     709     710     726     725     965     966     982     981
     587       2     710     711     727     726     966     967     983     982
     588       2     711     712     728     727     967     968     984     983
     589       2     712     713     729     728     968     969     985     984
     590       2     713     714     730     729     969     970     986     985
     591       2     714     715     731     730     970     971     987     986
     592       2     715     716     732     731     971     972     988     987
     593       2     716     717     733     732     972     973     989     988
     594       2     718     719     735     734     974     975     991     990
     595       2     719     720     736     735     975     976     992     991
     596       2     720     721     737     736     976     977     993     992
     597       2     721     722     738     737     977     978     994     993
     598       2     722     723     739     738     978     979     995     994
     599       2     723     724     740     739     979     980     996     995
     600       2     724     725     741     740     980     981     997     996
     601       2     725     726     742     741     981     982     998     997
     602       2     726     727     743     742     982     983     999     998
     603       2     727     728     744     743     983     984    1000     999
     604       2     728     729     745     744     984     985    1001    1000
     605       2     729     730     746     745     985     986    1002    1001
     606       2     730     731     747     746     986     987    1003    1002
     607       2     731     732     748     747     987     988    1004    1003
     608       2     732     733     749     748     988     989    1005    1004
     609       2     734     735     751     750     990     991    1007    1006
     610       2     735     736     752     751     991     992    1008    1007
     611       2     736     737     753     752     992     993    1009    1008
     612       2     737     738     754     753     993     994    1010    1009
     613       2     738     739     755     754     994     995    1011    1010
     614       2     739     740     756     755     995     996    1012    1011
     615       2     740     741     757     756     996     997    1013    1012
     616       2     741     742     758     757     997     998    1014    1013
     617       2     742     743     759     758     998     999    1015    1014
     618       2     743     744     760     759     999    1000    1016    1015
     619       2     744     745     761     760    1000    1001    1017    1016
     620       2     745     746     762     761    1001    1002    1018    1017
     621       2     746     747     763     762    1002    1003    1019    1018
     622       2     747     748     764     763    1003    1004    1020    1019
     623       2     748     749     765     764    1004    1005    1021    1020
     624       2     750     751     767     766    1006    1007    1023    1022
     625       2     751     752     768     767    1007    1008    1024    1023
     626       2     752     753     769     768    1008    1009    1025    1024
     627       2     753     754     770     769    1009    1010    1026    1025
     628       2     754     755     771     770    1010    1011    1027    1026
     629       2     755     756     772     771    1011    1012    1028    1027
     630       2     756     757     773     772    1012    1013    1029    1028
     631       2     757     758     774     773    1013    1014    1030    1029
     632       2     758     759     775     774    1014    1015    1031    1030
     633       2     759     760     776     775    1015    1016    1032    1031
     634       2     760     761     777     776    1016    1017    1033    1032
     635       2     761     762     778     777    1017    1018    1034    1033
     636       2     762     763     779     778    1018    1019    1035    1034
     637       2     763     764     780     779    1019    1020    1036    1035
     638       2     764     765     781     780    1020    1021    1037    1036
     639       2     766     767     783     782    1022    1023    1039    1038
     640       2     767     768     784     783    1023    1024    1040    1039
     641       2     768     769     785     784    1024    1025    1041    1040
     642       2     769     770     786     785    1025    1026    1042    1041
     643       2     770     771     787     786    1026    1027    1043    1042
     644       2     771     772     788     787    1027    1028    1044    1043
     645       2     772     773     789     788    1028    1029    1045    1044
     646       2     773     774     790     789    1029    1030    1046    1045
     647       2     774     775     791     790    1030    1031    1047    1046
     648       2     775     776     792     791    1031    1032    1048    1047
     649       2     776     777     793     792    1032    1033    1049    1048
     650       2     777     778     794     793    1033    1034    1050    1049
     651       2     778     779     795     794    1034    1035    1051    1050
     652       2     779     780     796     795    1035    1036    1052    1051
     653       2     780     781     797     796    1036    1037    1053    1052
     654       2     782     783     799     798    1038    1039    1055    1054
     655       2     783     784     800     799    1039    1040    1056    1055
     656       2     784     785     801     800    1040    1041    1057    1056
     657       2     785     786     802     801    1041    1042    1058    1057
     658       2     786     787     803     802    1042    1043    1059    1058
     659       2     787     788     804     803    1043    1044    1060    1059
     660       2     788     789     805     804    1044    1045    1061    1060
     661       2     789     790     806     805    1045    1046    1062    1061
     662       2     790     791     807     806    1046    1047    1063    1062
     663       2     791     792     808     807    1047    1048    1064    1063
     664       2     792     793     809     808    1048    1049    1065    1064
     665       2     793     794     810     809    1049    1050    1066    1065
     666       2     794     795     811     810    1050    1051    1067    1066
     667       2     795     796     812     811    1051    1052    1068    1067
     668       2     796     797     813     812    1052    1053    1069    1068
     669       2     798     799     815     814    1054    1055    1071    1070
     670       2     799     800     816     815    1055    1056    1072    1071
     671       2     800     801     817     816    1056    1057    1073    1072
     672       2     801     802     818     817    1057    1058    1074    1073
     673       2     802     803     819     818    1058    1059    1075    1074
     674       2     803     804     820     819    1059    1060    1076    1075
     675       2     804     805     821     820    1060    1061    1077    1076
     676       2     805     806     822     821    1061    1062    1078    1077
     677       2     806     807     823     822    1062    1063    1079    1078
     678       2     807     808     824     823    1063    1064    1080    1079
     679       2     808     809     825     824    1064    1065    1081    1080
     680       2     809     810     826     825    1065    1066    1082    1081
     681       2     810     811     827     826    1066    1067    1083    1082
     682       2     811     812     828     827    1067    1068    1084    1083
     683       2     812     813     829     828    1068    1069    1085    1084
     684       2     814     815     831     830    1070    1071    1087    1086
     685       2     815     816     832     831    1071    1072    1088    1087
     686       2     816     817     833     832    1072    1073    1089    1088
     687       2     817     818     834     833    1073    1074    1090    1089
     688       2     818     819     835     834    1074    1075    1091    1090
     689       2     819     820     836     835    1075    1076    1092    1091
     690       2     820     821     837     836    1076    1077    1093    1092
     691       2     821     822     838     837    1077    1078    1094    1093
     692       2     822     823     839     838    1078    1079    1095    1094
     693       2     823     824     840     839    1079    1080    1096    1095
     694       2     824     825     841     840    1080    1081    1097    1096
     695       2     825     826     842     841    1081    1082    1098    1097
     696       2     826     827     843     842    1082    1083    1099    1098
     697       2     827     828     844     843    1083    1084    1100    1099
     698       2     828     829     845     844    1084    1085    1101    1100
     699       2     830     831     847     846    1086    1087    1103    1102
     700       2     831     832     848     847    1087    1088    1104    1103
     701       2     832     833     849     848    1088    1089    1105    1104
     702       2     833     834     850     849    1089    1090    1106    1105
     703       2     834     835     851     850    1090    1091    1107    1106
     704       2     835     836     852     851    1091    1092    1108    1107
     705       2     836     837     853     852    1092    1093    1109    1108
     706       2     837     838     854     853    1093    1094    1110    1109
     707       2     838     839     855     854    1094    1095    1111    1110
     708       2     839     840     856     855    1095    1096    1112    1111
     709       2     840     841     857     856    1096    1097    1113    1112
     710       2     841     842     858     857    1097    1098    1114    1113
     711       2     842     843     859     858    1098    1099    1115    1114
     712       2     843     844     860     859    1099    1100    1116    1115
     713       2     844     845     861     860    1100    1101    1117    1116
     714       2     846     847     863     862    1102    1103    1119    1118
     715       2     847     848     864     863    1103    1104    1120    1119
     716       2     848     849     865     864    1104    1105    1121    1120
     717       2     849     850     866     865    1105    1106    1122    1121
     718       2     850     851     867     866    1106    1107    1123    1122
     719       2     851     852     868     867    1107    1108    1124    1123
     720       2     852     853     869     868    1108    1109    1125    1124
     721       2     853     854     870     869    1109    1110    1126    1125
     722       2     854     855     871     870    1110    1111    1127    1126
     723       2     855     856     872     871    1111    1112    1128    1127
     724       2     856     857     873     872    1112    1113    1129    1128
     725       2     857     858     874     873    1113    1114    1130    1129
     726       2     858     859     875     874    1114    1115    1131    1130
     727       2     859     860     876     875    1115    1116    1132    1131
     728       2     860     861     877     876    1116    1117    1133    1132
     729       2     862     863     879     878    1118    1119    1135    1134
     730       2     863     864     880     879    1119    1120    1136    1135
     731       2     864     865     881     880    1120    1121    1137    1136
     732       2     865     866     882     881    1121    1122    1138    1137
     733       2     866     867     883     882    1122    1123    1139    1138
     734       2     867     868     884     883    1123    1124    1140    1139
     735       2     868     869     885     884    1124    1125    1141    1140
     736       2     869     870     886     885    1125    1126    1142    1141
     737       2     870     871     887     886    1126    1127    1143    1142
     738       2     871     872     888     887    1127    1128    1144    1143
     739       2     872     873     889     888    1128    1129    1145    1144
     740       2     873     874     890     889    1129    1130    1146    1145
     741       2     874     875     891     890    1130    1131    1147    1146
     742       2     875     876     892     891    1131    1132    1148    1147
     743       2     876     877     893     892    1132    1133    1149    1148
     744       2     878     879     895     894    1134    1135    1151    1150
     745       2     879     880     896     895    1135    1136    1152    1151
     746       2     880     881     897     896    1136    1137    1153    1152
     747       2     881     882     898     897    1137    1138    1154    1153
     748       2     882     883     899     898    1138    1139    1155    1154
     749       2     883     884     900     899    1139    1140    1156    1155
     750       2     884     885     901     900    1140    1141    1157    1156
     751       2     885     886     902     901    1141    1142    1158    1157
     752       2     886     887     903     902    1142    1143    1159    1158
     753       2     887     888     904     903    1143    1144    1160    1159
     754       2     888     889     905     904    1144    1145    1161    1160
     755       2     889     890     906     905    1145    1146    1162    1161
     756       2     890     891     907     906    1146    1147    1163    1162
     757       2     891     892     908     907    1147    1148    1164    1163
     758       2     892     893     909     908    1148    1149    1165    1164
     759       2     894     895     911     910    1150    1151    1167    1166
     760       2     895     896     912     911    1151    1152    1168    1167
     761       2     896     897     913     912    1152    1153    1169    1168
     762       2     897     898     914     913    1153    1154    1170    1169
     763       2     898     899     915     914    1154    1155    1171    1170
     764       2     899     900     916     915    1155    1156    1172    1171
     765       2     900     901     917     916    1156    1157    1173    1172
     766       2     901     902     918     917    1157    1158    1174    1173
     767       2     902     903     919     918    1158    1159    1175    1174
     768       2     903     904     920     919    1159    1160    1176    1175
     769       2     904     905     921     920    1160    1161    1177    1176
     770       2     905     906     922     921    1161    1162    1178    1177
     771       2     906     907     923     922    1162    1163    1179    1178
     772       2     907     908     924     923    1163    1164    1180    1179
     773       2     908     909     925     924    1164    1165    1181    1180
     774       2     910     911     927     926    1166    1167    1183    1182
     775       2     911     912     928     927    1167    1168    1184    1183
     776       2     912     913     929     928    1168    1169    1185    1184
     777       2     913     914     930     929    1169    1170    1186    1185
     778       2     914     915     931     930    1170    1171    1187    1186
     779       2     915     916     932     931    1171    1172    1188    1187
     780       2     916     917     933     932    1172    1173    1189    1188
     781       2     917     918     934     933    1173    1174    1190    1189
     782       2     918     919     935     934    1174    1175    1191    1190
     783       2     919     920     936     935    1175    1176    1192    1191
     784       2     920     921     937     936    1176    1177    1193    1192
     785       2     921     922     938     937    1177    1178    1194    1193
     786       2     922     923     939     938    1178    1179    1195    1194
     787       2     923     924     940     939    1179    1180    1196    1195
     788       2     924     925     941     940    1180    1181    1197    1196
     789       2     926     927     943     942    1182    1183    1199    1198
     790       2     927     928     944     943    1183    1184    1200    1199
     791       2     928     929     945     944    1184    1185    1201    1200
     792       2     929     930     946     945    1185    1186    1202    1201
     793       2     930     931     947     946    1186    1187    1203    1202
     794       2     931     932     948     947    1187    1188    1204    1203
     795       2     932     933     949     948    1188    1189    1205    1204
     796       2     933     934     950     949    1189    1190    1206    1205
     797       2     934     935     951     950    1190    1191    1207    1206
     798       2     935     936     952     951    1191    1192    1208    1207
     799       2     936     937     953     952    1192    1193    1209    1208
     800       2     937     938     954     953    1193    1194    1210    1209
     801       2     938     939     955     954    1194    1195    1211    1210
     802       2     939     940     956     955    1195    1196    1212    1211
     803       2     940     941     957     956    1196    1197    1213    1212
     804       2     958     959     975     974    1214    1215    1231    1230
     805       2     959     960     976     975    1215    1216    1232    1231
     806       2     960     961     977     976    1216    1217    1233    1232
     807       2     961     962     978     977    1217    1218    1234    1233
     808       2     962     963     979     978    1218    1219    1235    1234
     809       2     963     964     980     979    1219    1220    1236    1235
     810       2     964     965     981     980    1220    1221    1237    1236
     811       2     965     966     982     981    1221    1222    1238    1237
     812       2     966     967     983     982    1222    1223    1239    1238
     813       2     967     968     984     983    1223    1224    1240    1239
     814       2     968     969     985     984    1224    1225    1241    1240
     815       2     969     970     986     985    1225    1226    1242    1241
     816       2     970     971     987     986    1226    1227    1243    1242
     817       2     971     972     988     987    1227    1228    1244    1243
     818       2     972     973     989     988    1228    1229    1245    1244
     819       2     974     975     991     990    1230    1231    1247    1246
     820       2     975     976     992     991    1231    1232    1248    1247
     821       2     976     977     993     992    1232    1233    1249    1248
     822       2     977     978     994     993    1233    1234    1250    1249
     823       2     978     979     995     994    1234    1235    1251    1250
     824       2     979     980     996     995    1235    1236    1252    1251
     825       2     980     981     997     996    1236    1237    1253    1252
     826       2     981     982     998     997    1237    1238    1254    1253
     827       2     982     983     999     998    1238    1239    1255    1254
     828       2     983     984    1000     999    1239    1240    1256    1255
     829       2     984     985    1001    1000    1240    1241    1257    1256
     830       2     985     986    1002    1001    1241    1242    1258    1257
     831       2     986     987    1003    1002    1242    1243    1259    1258
     832       2     987     988    1004    1003    1243    1244    1260    1259
     833       2     988     989    1005    1004    1244    1245    1261    1260
     834       2     990     991    1007    1006    1246    1247    1263    1262
     835       2     991     992    1008    1007    1247    1248    1264    1263
     836       2     992     993    1009    1008    1248    1249    1265    1264
     837       2     993     994    1010    1009    1249    1250    1266    1265
     838       2     994     995    1011    1010    1250    1251    1267    1266
     839       2     995     996    1012    1011    1251    1252    1268    1267
     840       2     996     997    1013    1012    1252    1253    1269    1268
     841       2     997     998    1014    1013    1253    1254    1270    1269
     842       2     998     999    1015    1014    1254    1255    1271    1270
     843       2     999    1000    1016    1015    1255    1256    1272    1271
     844       2    1000    1001    1017    1016    1256    1257    1273    1272
     845       2    1001    1002    1018    1017    1257    1258    1274    1273
     846       2    1002    1003    1019    1018    1258    1259    1275    1274
     847       2    1003    1004    1020    1019    1259    1260    1276    1275
     848       2    1004    1005    1021    1020    1260    1261    1277    1276
     849       2    1006    1007    1023    1022    1262    1263    1279    1278
     850       2    1007    1008    1024    1023    1263    1264    1280    1279
     851       2    1008    1009    1025    1024    1264    1265    1281    1280
     852       2    1009    1010    1026    1025    1265    1266    1282    1281
     853       2    1010    1011    1027    1026    1266    1267    1283    1282
     854       2    1011    1012    1028    1027    1267    1268    1284    1283
     855       2    1012    1013    1029    1028    1268    1269    1285    1284
     856       2    1013    1014    1030    1029    1269    1270    1286    1285
     857       2    1014    1015    1031    1030    1270    1271    1287    1286
     858       2    1015    1016    1032    1031    1271    1272    1288    1287
     859       2    1016    1017    1033    1032    1272    1273    1289    1288
     860       2    1017    1018    1034    1033    1273    1274    1290    1289
     861       2    1018    1019    1035    1034    1274    1275    1291    1290
     862       2    1019    1020    1036    1035    1275    1276    1292    1291
     863       2    1020    1021    1037    1036    1276    1277    1293    1292
     864       2    1022    1023    1039    1038    1278    1279    1295    1294
     865       2    1023    1024    1040    1039    1279    1280    1296    1295
     866       2    1024    1025    1041    1040    1280    1281    1297    1296
     867       2    1025    1026    1042    1041    1281    1282    1298    1297
     868       2    1026    1027    1043    1042    1282    1283    1299    1298
     869       2    1027    1028    1044    1043    1283    1284    1300    1299
     870       2    1028    1029    1045    1044    1284    1285    1301    1300
     871       2    1029    1030    1046    1045    1285    1286    1302    1301
     872       2    1030    1031    1047    1046    1286    1287    1303    1302
     873       2    1031    1032    1048    1047    1287    1288    1304    1303
     874       2    1032    1033    1049    1048    1288    1289    1305    1304
     875       2    1033    1034    1050    1049    1289    1290    1306    1305
     876       2    1034    1035    1051    1050    1290    1291    1307    1306
     877       2    1035    1036    1052    1051    1291    1292    1308    1307
     878       2    1036    1037    1053    1052    1292    1293    1309    1308
     879       2    1038    1039    1055    1054    1294    1295    1311    1310
     880       2    1039    1040    1056    1055    1295    1296    1312    1311
     881       2    1040    1041    1057    1056    1296    1297    1313    1312
     882       2    1041    1042    1058    1057    1297    1298    1314    1313
     883       2    1042    1043    1059    1058    1298    1299    1315    1314
     884       2    1043    1044    1060    1059    1299    1300    1316    1315
     885       2    1044    1045    1061    1060    1300    1301    1317    1316
     886       2    1045    1046    1062    1061    1301    1302    1318    1317
     887       2    1046    1047    1063    1062    1302    1303    1319    1318
     888       2    1047    1048    1064    1063    1303    1304    1320    1319
     889       2    1048    1049    1065    1064    1304    1305    1321    1320
     890       2    1049    1050    1066    1065    1305    1306    1322    1321
     891       2    1050    1051    1067    1066    1306    1307    1323    1322
     892       2    1051    1052    1068    1067    1307    1308    1324    1323
     893       2    1052    1053    1069    1068    1308    1309    1325    1324
     894       2    1054    1055    1071    1070    1310    1311    1327    1326
     895       2    1055    1056    1072    1071    1311    1312    1328    1327
     896       2    1056    1057    1073    1072    1312    1313    1329    1328
[...]
    1453             2.5        2.166667             1.8       0       0
    1454            -2.5             2.5             1.8       0       0
    1455       -2.166667             2.5             1.8       0       0
    1456       -1.833333             2.5             1.8       0       0
    1457            -1.5             2.5             1.8       0       0
    1458       -1.166667             2.5             1.8       0       0
    1459      -0.8333333             2.5             1.8       0       0
    1460            -0.5             2.5             1.8       0       0
    1461      -0.1666665             2.5             1.8       0       0
    1462       0.1666667             2.5             1.8       0       0
    1463             0.5             2.5             1.8       0       0
    1464       0.8333335             2.5             1.8       0       0
    1465        1.166667             2.5             1.8       0       0
    1466             1.5             2.5             1.8       0       0
    1467        1.833333             2.5             1.8       0       0
    1468        2.166667             2.5             1.8       0       0
    1469             2.5             2.5             1.8       0       0
    1470            -2.5            -2.5             2.0       0       0
    1471       -2.166667            -2.5             2.0       0       0
    1472       -1.833333            -2.5             2.0       0       0
    1473            -1.5            -2.5             2.0       0       0
    1474       -1.166667            -2.5             2.0       0       0
    1475      -0.8333333            -2.5             2.0       0       0
    1476            -0.5            -2.5             2.0       0       0
    1477      -0.1666665            -2.5             2.0       0       0
    1478       0.1666667            -2.5             2.0       0       0
    1479             0.5            -2.5             2.0       0       0
    1480       0.8333335            -2.5             2.0       0       0
    1481        1.166667            -2.5             2.0       0       0
    1482             1.5            -2.5             2.0       0       0
    1483        1.833333            -2.5             2.0       0       0
    1484        2.166667            -2.5             2.0       0       0
    1485             2.5            -2.5             2.0       0       0
    1486            -2.5       -2.166667             2.0       0       0
    1487       -2.166667       -2.166667             2.0       0       0
    1488       -1.833333       -2.166667             2.0       0       0
    1489            -1.5       -2.166667             2.0       0       0
    1490       -1.166667       -2.166667             2.0       0       0
    1491      -0.8333333       -2.166667             2.0       0       0
    1492            -0.5       -2.166667             2.0       0       0
    1493      -0.1666665       -2.166667             2.0       0       0
    1494       0.1666667       -2.166667             2.0       0       0
    1495             0.5       -2.166667             2.0       0       0
    1496       0.8333335       -2.166667             2.0       0       0
    1497        1.166667       -2.166667             2.0       0       0
    1498             1.5       -2.166667             2.0       0       0
    1499        1.833333       -2.166667             2.0       0       0
    1500        2.166667       -2.166667             2.0       0       0
    1501             2.5       -2.166667             2.0       0       0
    1502            -2.5       -1.833333             2.0       0       0
    1503       -2.166667       -1.833333             2.0       0       0
    1504       -1.833333       -1.833333             2.0       0       0
    1505            -1.5       -1.833333             2.0       0       0
    1506       -1.166667       -1.833333             2.0       0       0
    1507      -0.8333333       -1.833333             2.0       0       0
    1508            -0.5       -1.833333             2.0       0       0
    1509      -0.1666665       -1.833333             2.0       0       0
    1510       0.1666667       -1.833333             2.0       0       0
    1511             0.5       -1.833333             2.0       0       0
    1512       0.8333335       -1.833333             2.0       0       0
    1513        1.166667       -1.833333             2.0       0       0
    1514             1.5       -1.833333             2.0       0       0
    1515        1.833333       -1.833333             2.0       0       0
    1516        2.166667       -1.833333             2.0       0       0
    1517             2.5       -1.833333             2.0       0       0
    1518            -2.5            -1.5             2.0       0       0
    1519       -2.166667            -1.5             2.0       0       0
    1520       -1.833333            -1.5             2.0       0       0
    1521            -1.5            -1.5             2.0       0       0
    1522       -1.166667            -1.5             2.0       0       0
    1523      -0.8333333            -1.5             2.0       0       0
    1524            -0.5            -1.5             2.0       0       0
    1525      -0.1666665            -1.5             2.0       0       0
    1526       0.1666667            -1.5             2.0       0       0
    1527             0.5            -1.5             2.0       0       0
    1528       0.8333335            -1.5             2.0       0       0
    1529        1.166667            -1.5             2.0       0       0
    1530             1.5            -1.5             2.0       0       0
    1531        1.833333            -1.5             2.0       0       0
    1532        2.166667            -1.5             2.0       0       0
    1533             2.5            -1.5             2.0       0       0
    1534            -2.5       -1.166667             2.0       0       0
    1535       -2.166667       -1.166667             2.0       0       0
    1536       -1.833333       -1.166667             2.0       0       0
    1537            -1.5       -1.166667             2.0       0       0
    1538       -1.166667       -1.166667             2.0       0       0
    1539      -0.8333333       -1.166667             2.0       0       0
    1540            -0.5       -1.166667             2.0       0       0
    1541      -0.1666665       -1.166667             2.0       0       0
    1542       0.1666667       -1.166667             2.0       0       0
    1543             0.5       -1.166667             2.0       0       0
    1544       0.8333335       -1.166667             2.0       0       0
    1545        1.166667       -1.166667             2.0       0       0
    1546             1.5       -1.166667             2.0       0       0
    1547        1.833333       -1.166667             2.0       0       0
    1548        2.166667       -1.166667             2.0       0       0
    1549             2.5       -1.166667             2.0       0       0
    1550            -2.5      -0.8333333             2.0       0       0
    1551       -2.166667      -0.8333333             2.0       0       0
    1552       -1.833333      -0.8333333             2.0       0       0
    1553            -1.5      -0.8333333             2.0       0       0
    1554       -1.166667      -0.8333333             2.0       0       0
    1555      -0.8333333      -0.8333333             2.0       0       0
    1556            -0.5      -0.8333333             2.0       0       0
    1557      -0.1666665      -0.8333333             2.0       0       0
    1558       0.1666667      -0.8333333             2.0       0       0
    1559             0.5      -0.8333333             2.0       0       0
    1560       0.8333335      -0.8333333             2.0       0       0
    1561        1.166667      -0.8333333             2.0       0       0
    1562             1.5      -0.8333333             2.0       0       0
    1563        1.833333      -0.8333333             2.0       0       0
    1564        2.166667      -0.8333333             2.0       0       0
    1565             2.5      -0.8333333             2.0       0       0
    1566            -2.5            -0.5             2.0       0       0
    1567       -2.166667            -0.5             2.0       0       0
    1568       -1.833333            -0.5             2.0       0       0
    1569            -1.5            -0.5             2.0       0       0
    1570       -1.166667            -0.5             2.0       0       0
    1571      -0.8333333            -0.5             2.0       0       0
    1572            -0.5            -0.5             2.0       0       0
    1573      -0.1666665            -0.5             2.0       0       0
    1574       0.1666667            -0.5             2.0       0       0
    1575             0.5            -0.5             2.0       0       0
    1576       0.8333335            -0.5             2.0       0       0
    1577        1.166667            -0.5             2.0       0       0
    1578             1.5            -0.5             2.0       0       0
    1579        1.833333            -0.5             2.0       0       0
    1580        2.166667            -0.5             2.0       0       0
    1581             2.5            -0.5             2.0       0       0
    1582            -2.5      -0.1666665             2.0       0       0
    1583       -2.166667      -0.1666665             2.0       0       0
    1584       -1.833333      -0.1666665             2.0       0       0
    1585            -1.5      -0.1666665             2.0       0       0
    1586       -1.166667      -0.1666665             2.0       0       0
    1587      -0.8333333      -0.1666665             2.0       0       0
    1588            -0.5      -0.1666665             2.0       0       0
    1589      -0.1666665      -0.1666665             2.0       0       0
    1590       0.1666667      -0.1666665             2.0       0       0
    1591             0.5      -0.1666665             2.0       0       0
    1592       0.8333335      -0.1666665             2.0       0       0
    1593        1.166667      -0.1666665             2.0       0       0
    1594             1.5      -0.1666665             2.0       0       0
    1595        1.833333      -0.1666665             2.0       0       0
    1596        2.166667      -0.1666665             2.0       0       0
    1597             2.5      -0.1666665             2.0       0       0
    1598            -2.5       0.1666667             2.0       0       0
    1599       -2.166667       0.1666667             2.0       0       0
    1600       -1.833333       0.1666667             2.0       0       0
    1601            -1.5       0.1666667             2.0       0       0
    1602       -1.166667       0.1666667             2.0       0       0
    1603      -0.8333333       0.1666667             2.0       0       0
    1604            -0.5       0.1666667             2.0       0       0
    1605      -0.1666665       0.1666667             2.0       0       0
    1606       0.1666667       0.1666667             2.0       0       0
    1607             0.5       0.1666667             2.0       0       0
    1608       0.8333335       0.1666667             2.0       0       0
    1609        1.166667       0.1666667             2.0       0       0
    1610             1.5       0.1666667             2.0       0       0
    1611        1.833333       0.1666667             2.0       0       0
    1612        2.166667       0.1666667             2.0       0       0
    1613             2.5       0.1666667             2.0       0       0
    1614            -2.5             0.5             2.0       0       0
    1615       -2.166667             0.5             2.0       0       0
    1616       -1.833333             0.5             2.0       0       0
    1617            -1.5             0.5             2.0       0       0
    1618       -1.166667             0.5             2.0       0       0
    1619      -0.8333333             0.5             2.0       0       0
    1620            -0.5             0.5             2.0       0       0
    1621      -0.1666665             0.5             2.0       0       0
    1622       0.1666667             0.5             2.0       0       0
    1623             0.5             0.5             2.0       0       0
    1624       0.8333335             0.5             2.0       0       0
    1625        1.166667             0.5             2.0       0       0
    1626             1.5             0.5             2.0       0       0
    1627        1.833333             0.5             2.0       0       0
    1628        2.166667             0.5             2.0       0       0
    1629             2.5             0.5             2.0       0       0
    1630            -2.5       0.8333335             2.0       0       0
    1631       -2.166667       0.8333335             2.0       0       0
    1632       -1.833333       0.8333335             2.0       0       0
    1633            -1.5       0.8333335             2.0       0       0
    1634       -1.166667       0.8333335             2.0       0       0
    1635      -0.8333333       0.8333335             2.0       0       0
    1636            -0.5       0.8333335             2.0       0       0
    1637      -0.1666665       0.8333335             2.0       0       0
    1638       0.1666667       0.8333335             2.0       0       0
    1639             0.5       0.8333335             2.0       0       0
    1640       0.8333335       0.8333335             2.0       0       0
    1641        1.166667       0.8333335             2.0       0       0
    1642             1.5       0.8333335             2.0       0       0
    1643        1.833333       0.8333335             2.0       0       0
    1644        2.166667       0.8333335             2.0       0       0
    1645             2.5       0.8333335             2.0       0       0
    1646            -2.5        1.166667             2.0       0       0
    1647       -2.166667        1.166667             2.0       0       0
    1648       -1.833333        1.166667             2.0       0       0
    1649            -1.5        1.166667             2.0       0       0
    1650       -1.166667        1.166667             2.0       0       0
    1651      -0.8333333        1.166667             2.0       0       0
    1652            -0.5        1.166667             2.0       0       0
    1653      -0.1666665        1.166667             2.0       0       0
    1654       0.1666667        1.166667             2.0       0       0
    1655             0.5        1.166667             2.0       0       0
    1656       0.8333335        1.166667             2.0       0       0
    1657        1.166667        1.166667             2.0       0       0
    1658             1.5        1.166667             2.0       0       0
    1659        1.833333        1.166667             2.0       0       0
    1660        2.166667        1.166667             2.0       0       0
    1661             2.5        1.166667             2.0       0       0
    1662            -2.5             1.5             2.0       0       0
    1663       -2.166667             1.5             2.0       0       0
    1664       -1.833333             1.5             2.0       0       0
    1665            -1.5             1.5             2.0       0       0
    1666       -1.166667             1.5             2.0       0       0
    1667      -0.8333333             1.5             2.0       0       0
    1668            -0.5             1.5             2.0       0       0
    1669      -0.1666665             1.5             2.0       0       0
    1670       0.1666667             1.5             2.0       0       0
    1671             0.5             1.5             2.0       0       0
    1672       0.8333335             1.5             2.0       0       0
    1673        1.166667             1.5             2.0       0       0
    1674             1.5             1.5             2.0       0       0
    1675        1.833333             1.5             2.0       0       0
    1676        2.166667             1.5             2.0       0       0
    1677             2.5             1.5             2.0       0       0
    1678            -2.5        1.833333             2.0       0       0
    1679       -2.166667        1.833333             2.0       0       0
    1680       -1.833333        1.833333             2.0       0       0
    1681            -1.5        1.833333             2.0       0       0
    1682       -1.166667        1.833333             2.0       0       0
    1683      -0.8333333        1.833333             2.0       0       0
    1684            -0.5        1.833333             2.0       0       0
    1685      -0.1666665        1.833333             2.0       0       0
    1686       0.1666667        1.833333             2.0       0       0
    1687             0.5        1.833333             2.0       0       0
    1688       0.8333335        1.833333             2.0       0       0
    1689        1.166667        1.833333             2.0       0       0
    1690             1.5        1.833333             2.0       0       0
    1691        1.833333        1.833333             2.0       0       0
    1692        2.166667        1.833333             2.0       0       0
    1693             2.5        1.833333             2.0       0       0
    1694            -2.5        2.166667             2.0       0       0
    1695       -2.166667        2.166667             2.0       0       0
    1696       -1.833333        2.166667             2.0       0       0
    1697            -1.5        2.166667             2.0       0       0
    1698       -1.166667        2.166667             2.0       0       0
    1699      -0.8333333        2.166667             2.0       0       0
    1700            -0.5        2.166667             2.0       0       0
    1701      -0.1666665        2.166667             2.0       0       0
    1702       0.1666667        2.166667             2.0       0       0
    1703             0.5        2.166667             2.0       0       0
    1704       0.8333335        2.166667             2.0       0       0
    1705        1.166667        2.166667             2.0       0       0
    1706             1.5        2.166667             2.0       0       0
    1707        1.833333        2.166667             2.0       0       0
    1708        2.166667        2.166667             2.0       0       0
    1709             2.5        2.166667             2.0       0       0
    1710            -2.5             2.5             2.0       0       0
    1711       -2.166667             2.5             2.0       0       0
    1712       -1.833333             2.5             2.0       0       0
    1713            -1.5             2.5             2.0       0       0
    1714       -1.166667             2.5             2.0       0       0
    1715      -0.8333333             2.5             2.0       0       0
    1716            -0.5             2.5             2.0       0       0
    1717      -0.1666665             2.5             2.0       0       0
    1718       0.1666667             2.5             2.0       0       0
    1719             0.5             2.5             2.0       0       0
    1720       0.8333335             2.5             2.0       0       0
    1721        1.166667             2.5             2.0       0       0
    1722             1.5             2.5             2.0       0       0
    1723        1.833333             2.5             2.0       0       0
    1724        2.166667             2.5             2.0       0       0
    1725             2.5             2.5             2.0       0       0
*END
