$# LS-DYNA Keyword file created by LS-PrePost(R) V4.7.20 -24Aug2020
$# Created on May-6-2022 (08:32:49)
*KEYWORD
*SET_NODE_LIST_TITLE
NS_y+
$#     sid       da1       da2       da3       da4    solver      
         1       0.0       0.0       0.0       0.0MECH
$#    nid1      nid2      nid3      nid4      nid5      nid6      nid7      nid8
         3         4         7         8         0         0         0         0
*SET_NODE_LIST_TITLE
NS_x-
$#     sid       da1       da2       da3       da4    solver      
         2       0.0       0.0       0.0       0.0MECH
$#    nid1      nid2      nid3      nid4      nid5      nid6      nid7      nid8
         1         3         5         7         0         0         0         0
*SET_NODE_LIST_TITLE
NS_y-
$#     sid       da1       da2       da3       da4    solver      
         3       0.0       0.0       0.0       0.0MECH
$#    nid1      nid2      nid3      nid4      nid5      nid6      nid7      nid8
         1         2         5         6         0         0         0         0
*SET_NODE_LIST_TITLE
NS_z-
$#     sid       da1       da2       da3       da4    solver      
         4       0.0       0.0       0.0       0.0MECH
$#    nid1      nid2      nid3      nid4      nid5      nid6      nid7      nid8
         1         2         3         4         0         0         0         0
*ELEMENT_SOLID
$#   eid     pid      n1      n2      n3      n4      n5      n6      n7      n8
       1       1       1       2       4       3       5       6       8       7
*NODE
$#   nid               x               y               z      tc      rc  
       1             0.0             0.0             0.0       0       0
       2             1.0             0.0             0.0       0       0
       3             0.0             1.0             0.0       0       0
       4             1.0             1.0             0.0       0       0
       5             0.0             0.0             1.0       0       0
       6             1.0             0.0             1.0       0       0
       7             0.0             1.0             1.0       0       0
       8             1.0             1.0             1.0       0       0
*END
